   1432 'GENROU' C     6.0000      0.50000       1.0000      0.50000E-01
          2.4100       0.0000       1.4000       1.3500      0.30000
         0.60000      0.20000      0.10000       0.0000       0.0000      /
   1432 'SEXS'   C    0.10000       10.000       100.00      0.10000
          0.0000       3.0000      /
   1432 'TGOV1'  C    0.33000       2.0000       1.0000       0.0000
          3.0000       15.000      0.40000      /
   1433 'GENROU' G     6.0000      0.50000       1.0000      0.50000E-01
          2.4100       0.0000       1.4000       1.3500      0.30000
         0.60000      0.20000      0.10000       0.0000       0.0000      /
   1433 'SEXS'   G    0.10000       10.000       100.00      0.10000
          0.0000       3.0000      /
   1433 'GAST'   G    0.33000      0.50000      0.50000       3.0000
          1.0000       2.0000       1.0000       0.0000       0.0000      /
   1448 'GENROU' C     6.0000      0.50000       1.0000      0.50000E-01
          2.4100       0.0000       1.4000       1.3500      0.30000
         0.60000      0.20000      0.10000       0.0000       0.0000      /
   1448 'SEXS'   C    0.10000       10.000       100.00      0.10000
          0.0000       3.0000      /
   1448 'TGOV1'  C    0.33000       2.0000       1.0000       0.0000
          3.0000       15.000      0.40000      /
   1452 'GENROU' G     6.0000      0.50000       1.0000      0.50000E-01
          2.4100       0.0000       1.4000       1.3500      0.30000
         0.60000      0.20000      0.10000       0.0000       0.0000      /
   1452 'SEXS'   G    0.10000       10.000       100.00      0.10000
          0.0000       3.0000      /
   1452 'GAST'   G    0.33000      0.50000      0.50000       3.0000
          1.0000       2.0000       1.0000       0.0000       0.0000      /
   1436 'GENROU' C     6.0000      0.50000       1.0000      0.50000E-01
          4.2600       0.0000       1.4000       1.3500      0.30000
         0.60000      0.20000      0.10000       0.0000       0.0000      /
   1436 'SEXS'   C    0.10000       10.000       100.00      0.10000
          0.0000       3.0000      /
   1436 'TGOV1'  C    0.33000       2.0000       1.0000       0.0000
          3.0000       15.000      0.40000      /
   1437 'GENROU' G     6.0000      0.50000       1.0000      0.50000E-01
          4.2600       0.0000       1.4000       1.3500      0.30000
         0.60000      0.20000      0.10000       0.0000       0.0000      /
   1437 'SEXS'   G    0.10000       10.000       100.00      0.10000
          0.0000       3.0000      /
   1437 'GAST'   G    0.33000      0.50000      0.50000       3.0000
          1.0000       2.0000       1.0000       0.0000       0.0000      /
   1441 'GENROU' C     6.0000      0.50000       1.0000      0.50000E-01
          4.2600       0.0000       1.4000       1.3500      0.30000
         0.60000      0.20000      0.10000       0.0000       0.0000      /
   1441 'SEXS'   C    0.10000       10.000       100.00      0.10000
          0.0000       3.0000      /
   1441 'TGOV1'  C    0.33000       2.0000       1.0000       0.0000
          3.0000       15.000      0.40000      /
   1443 'GENROU' H     6.0000      0.50000       1.0000      0.50000E-01
          4.2600       0.0000       1.4000       1.3500      0.30000
         0.60000      0.20000      0.10000       0.0000       0.0000      /
   1443 'SEXS'   H    0.10000       10.000       100.00      0.10000
          0.0000       3.0000      /
   1443 'HYGOV'  H    0.33000       1.0000       10.000      0.50000E-01
          10.000      0.10000E-02   1.0000       0.0000       1.0000
          1.5000       0.0000      0.80000E-01  /
   1439 'GENROU' G     6.0000      0.50000       1.0000      0.50000E-01
          4.2600       0.0000       1.4000       1.3500      0.30000
         0.60000      0.20000      0.10000       0.0000       0.0000      /
   1439 'SEXS'   G    0.10000       10.000       100.00      0.10000
          0.0000       3.0000      /
   1439 'GAST'   G    0.33000      0.50000      0.50000       3.0000
          1.0000       2.0000       1.0000       0.0000       0.0000      /
   1447 'GENROU' H     6.0000      0.50000       1.0000      0.50000E-01
          4.2600       0.0000       1.4000       1.3500      0.30000
         0.60000      0.20000      0.10000       0.0000       0.0000      /
   1447 'SEXS'   H    0.10000       10.000       100.00      0.10000
          0.0000       3.0000      /
   1447 'HYGOV'  H    0.33000       1.0000       10.000      0.50000E-01
          10.000      0.10000E-02   1.0000       0.0000       1.0000
          1.5000       0.0000      0.80000E-01  /
   1444 'GENROU' C     6.0000      0.50000       1.0000      0.50000E-01
          2.7900       0.0000       1.4000       1.3500      0.30000
         0.60000      0.20000      0.10000       0.0000       0.0000      /
   1444 'SEXS'   C    0.10000       10.000       100.00      0.10000
          0.0000       3.0000      /
   1444 'TGOV1'  C    0.33000       2.0000       1.0000       0.0000
          3.0000       15.000      0.40000      /
   1446 'GENROU' G     6.0000      0.50000       1.0000      0.50000E-01
          2.7900       0.0000       1.4000       1.3500      0.30000
         0.60000      0.20000      0.10000       0.0000       0.0000      /
   1446 'IEEEST' G          1            0       1.0130      0.13000E-01
          0.0000       0.0000       1.0130      0.11300       3.0000
         0.20000E-01   0.0000       0.0000       1.6500       1.6500
          3.0000      0.10000     -0.10000       0.0000       0.0000      /
   1446 'SEXS'   G    0.10000       10.000       100.00      0.10000
          0.0000       3.0000      /
   1446 'GAST'   G    0.33000      0.50000      0.50000       3.0000
          1.0000       2.0000       1.0000       0.0000       0.0000      /
   1450 'GENROU' G     6.0000      0.50000       1.0000      0.50000E-01
          4.2600       0.0000       1.4000       1.3500      0.30000
         0.60000      0.20000      0.10000       0.0000       0.0000      /
   1450 'SEXS'   G    0.10000       10.000       100.00      0.10000
          0.0000       3.0000      /
   1450 'GAST'   G    0.33000      0.50000      0.50000       3.0000
          1.0000       2.0000       1.0000       0.0000       0.0000      /
   1451 'GENROU' N     6.0000      0.50000       1.0000      0.50000E-01
          4.2600       0.0000       1.4000       1.3500      0.30000
         0.60000      0.20000      0.10000       0.0000       0.0000      /
   1451 'SEXS'   N    0.10000       10.000       100.00      0.10000
          0.0000       3.0000      /
   1451 'TGOV1'  N    0.33000       2.0000       1.0000       0.0000
          3.0000       15.000      0.40000      /
   2030 'GENROU' E     6.0000      0.50000       1.0000      0.50000E-01
          4.5300       0.0000       1.4000       1.3500      0.30000
         0.60000      0.20000      0.10000       0.0000       0.0000      /
   2030 'SEXS'   E    0.10000       10.000       100.00      0.10000
          0.0000       3.0000      /
   2030 'TGOV1'  E    0.33000       2.0000       1.0000       0.0000
          3.0000       15.000      0.40000      /
   2030 'GENROU' G     6.0000      0.50000       1.0000      0.50000E-01
          4.5300       0.0000       1.4000       1.3500      0.30000
         0.60000      0.20000      0.10000       0.0000       0.0000      /
   2030 'IEEEST' G          1            0       1.0130      0.13000E-01
          0.0000       0.0000       1.0130      0.11300       4.0000
         0.20000E-01   0.0000       0.0000       1.6500       1.6500
          3.0000      0.10000     -0.10000       0.0000       0.0000      /
   2030 'SEXS'   G    0.10000       10.000       100.00      0.10000
          0.0000       3.0000      /
   2030 'GAST'   G    0.33000      0.50000      0.50000       3.0000
          1.0000       2.0000       1.0000       0.0000       0.0000      /
   2905 'GENROU' E     6.0000      0.50000       1.0000      0.50000E-01
          3.7400       0.0000       1.4000       1.3500      0.30000
         0.60000      0.20000      0.10000       0.0000       0.0000      /
   2905 'SEXS'   E    0.10000       10.000       100.00      0.10000
          0.0000       3.0000      /
   2905 'TGOV1'  E    0.33000       2.0000       1.0000       0.0000
          3.0000       15.000      0.40000      /
   2906 'GENROU' G     6.0000      0.50000       1.0000      0.50000E-01
          3.7400       0.0000       1.4000       1.3500      0.30000
         0.60000      0.20000      0.10000       0.0000       0.0000      /
   2906 'SEXS'   G    0.10000       10.000       100.00      0.10000
          0.0000       3.0000      /
   2906 'GAST'   G    0.33000      0.50000      0.50000       3.0000
          1.0000       2.0000       1.0000       0.0000       0.0000      /
   2903 'GENROU' H     6.0000      0.50000       1.0000      0.50000E-01
          3.7400       0.0000       1.4000       1.3500      0.30000
         0.60000      0.20000      0.10000       0.0000       0.0000      /
   2903 'SEXS'   H    0.10000       10.000       100.00      0.10000
          0.0000       3.0000      /
   2903 'HYGOV'  H    0.33000       1.0000       10.000      0.50000E-01
          10.000      0.10000E-02   1.0000       0.0000       1.0000
          1.5000       0.0000      0.80000E-01  /
   2909 'GENROU' DG    6.0000      0.50000       1.0000      0.50000E-01
          3.3000       0.0000       1.4000       1.3500      0.30000
         0.60000      0.20000      0.10000       0.0000       0.0000      /
   2909 'SEXS'   DG   0.10000       10.000       100.00      0.10000
          0.0000       3.0000      /
   2909 'GAST'   DG   0.33000      0.50000      0.50000       3.0000
          1.0000       2.0000       1.0000       0.0000       0.0000      /
   2908 'GENROU' EG    6.0000      0.50000       1.0000      0.50000E-01
          3.3000       0.0000       1.4000       1.3500      0.30000
         0.60000      0.20000      0.10000       0.0000       0.0000      /
   2908 'SEXS'   EG   0.10000       10.000       100.00      0.10000
          0.0000       3.0000      /
   2908 'GAST'   EG   0.33000      0.50000      0.50000       3.0000
          1.0000       2.0000       1.0000       0.0000       0.0000      /
   2910 'GENROU' TG    6.0000      0.50000       1.0000      0.50000E-01
          3.3000       0.0000       1.4000       1.3500      0.30000
         0.60000      0.20000      0.10000       0.0000       0.0000      /
   2910 'SEXS'   TG   0.10000       10.000       100.00      0.10000
          0.0000       3.0000      /
   2910 'GAST'   TG   0.33000      0.50000      0.50000       3.0000
          1.0000       2.0000       1.0000       0.0000       0.0000      /
   2917 'GENROU' EG    6.0000      0.50000       1.0000      0.50000E-01
          3.5400       0.0000       1.4000       1.3500      0.30000
         0.60000      0.20000      0.10000       0.0000       0.0000      /
   2917 'SEXS'   EG   0.10000       10.000       100.00      0.10000
          0.0000       3.0000      /
   2917 'GAST'   EG   0.33000      0.50000      0.50000       3.0000
          1.0000       2.0000       1.0000       0.0000       0.0000      /
   2913 'GENROU' ND    6.0000      0.50000       1.0000      0.50000E-01
          3.5400       0.0000       1.4000       1.3500      0.30000
         0.60000      0.20000      0.10000       0.0000       0.0000      /
   2913 'SEXS'   ND   0.10000       10.000       100.00      0.10000
          0.0000       3.0000      /
   2913 'TGOV1'  ND   0.33000       2.0000       1.0000       0.0000
          3.0000       15.000      0.40000      /
   2914 'GENROU' RG    6.0000      0.50000       1.0000      0.50000E-01
          3.5400       0.0000       1.4000       1.3500      0.30000
         0.60000      0.20000      0.10000       0.0000       0.0000      /
   2914 'SEXS'   RG   0.10000       10.000       100.00      0.10000
          0.0000       3.0000      /
   2914 'GAST'   RG   0.33000      0.50000      0.50000       3.0000
          1.0000       2.0000       1.0000       0.0000       0.0000      /
   2915 'GENROU' SG    6.0000      0.50000       1.0000      0.50000E-01
          3.5400       0.0000       1.4000       1.3500      0.30000
         0.60000      0.20000      0.10000       0.0000       0.0000      /
   2915 'SEXS'   SG   0.10000       10.000       100.00      0.10000
          0.0000       3.0000      /
   2915 'GAST'   SG   0.33000      0.50000      0.50000       3.0000
          1.0000       2.0000       1.0000       0.0000       0.0000      /
   2912 'GENROU' SH    6.0000      0.50000       1.0000      0.50000E-01
          3.5400       0.0000       1.4000       1.3500      0.30000
         0.60000      0.20000      0.10000       0.0000       0.0000      /
   2912 'SEXS'   SH   0.10000       10.000       100.00      0.10000
          0.0000       3.0000      /
   2912 'HYGOV'  SH   0.33000       1.0000       10.000      0.50000E-01
          10.000      0.10000E-02   1.0000       0.0000       1.0000
          1.5000       0.0000      0.80000E-01  /
   2916 'GENROU' WG    6.0000      0.50000       1.0000      0.50000E-01
          3.5400       0.0000       1.4000       1.3500      0.30000
         0.60000      0.20000      0.10000       0.0000       0.0000      /
   2916 'IEEEST' WG         1            0       1.0130      0.13000E-01
          0.0000       0.0000       1.0130      0.11300       11.000
         0.20000E-01   0.0000       0.0000       1.6500       1.6500
          3.0000      0.10000     -0.10000       0.0000       0.0000      /
   2916 'SEXS'   WG   0.10000       10.000       100.00      0.10000
          0.0000       3.0000      /
   2916 'GAST'   WG   0.33000      0.50000      0.50000       3.0000
          1.0000       2.0000       1.0000       0.0000       0.0000      /
   3935 'GENROU' G     6.0000      0.50000       1.0000      0.50000E-01
          4.7500       0.0000       1.4000       1.3500      0.30000
         0.60000      0.20000      0.10000       0.0000       0.0000      /
   3935 'IEEEST' G          1            0       1.0130      0.13000E-01
          0.0000       0.0000       1.0130      0.11300       4.0000
         0.20000E-01   0.0000       0.0000       1.6500       1.6500
          3.0000      0.10000     -0.10000       0.0000       0.0000      /
   3935 'SEXS'   G    0.10000       10.000       100.00      0.10000
          0.0000       3.0000      /
   3935 'GAST'   G    0.33000      0.50000      0.50000       3.0000
          1.0000       2.0000       1.0000       0.0000       0.0000      /
   3936 'GENROU' C     6.0000      0.50000       1.0000      0.50000E-01
          2.8700       0.0000       1.4000       1.3500      0.30000
         0.60000      0.20000      0.10000       0.0000       0.0000      /
   3936 'SEXS'   C    0.10000       10.000       100.00      0.10000
          0.0000       3.0000      /
   3936 'TGOV1'  C    0.33000       2.0000       1.0000       0.0000
          3.0000       15.000      0.40000      /
   2637 'GENROU' H     6.0000      0.50000       1.0000      0.50000E-01
          4.7500       0.0000       1.4000       1.3500      0.30000
         0.60000      0.20000      0.10000       0.0000       0.0000      /
   2637 'SEXS'   H    0.10000       10.000       100.00      0.10000
          0.0000       3.0000      /
   2637 'HYGOV'  H    0.33000       1.0000       10.000      0.50000E-01
          10.000      0.10000E-02   1.0000       0.0000       1.0000
          1.5000       0.0000      0.80000E-01  /
   2638 'GENROU' H     6.0000      0.50000       1.0000      0.50000E-01
          4.7500       0.0000       1.4000       1.3500      0.30000
         0.60000      0.20000      0.10000       0.0000       0.0000      /
   2638 'SEXS'   H    0.10000       10.000       100.00      0.10000
          0.0000       3.0000      /
   2638 'HYGOV'  H    0.33000       1.0000       10.000      0.50000E-01
          10.000      0.10000E-02   1.0000       0.0000       1.0000
          1.5000       0.0000      0.80000E-01  /
   3939 'GENROU' NG    6.0000      0.50000       1.0000      0.50000E-01
          3.6600       0.0000       1.4000       1.3500      0.30000
         0.60000      0.20000      0.10000       0.0000       0.0000      /
   3939 'SEXS'   NG   0.10000       10.000       100.00      0.10000
          0.0000       3.0000      /
   3939 'GAST'   NG   0.33000      0.50000      0.50000       3.0000
          1.0000       2.0000       1.0000       0.0000       0.0000      /
   3940 'GENROU' SC    6.0000      0.50000       1.0000      0.50000E-01
          3.6600       0.0000       1.4000       1.3500      0.30000
         0.60000      0.20000      0.10000       0.0000       0.0000      /
   3940 'SEXS'   SC   0.10000       10.000       100.00      0.10000
          0.0000       3.0000      /
   3940 'TGOV1'  SC   0.33000       2.0000       1.0000       0.0000
          3.0000       15.000      0.40000      /
   3942 'GENROU' MG    6.0000      0.50000       1.0000      0.50000E-01
          3.6600       0.0000       1.4000       1.3500      0.30000
         0.60000      0.20000      0.10000       0.0000       0.0000      /
   3942 'SEXS'   MG   0.10000       10.000       100.00      0.10000
          0.0000       3.0000      /
   3942 'GAST'   MG   0.33000      0.50000      0.50000       3.0000
          1.0000       2.0000       1.0000       0.0000       0.0000      /
   3941 'GENROU' NG    6.0000      0.50000       1.0000      0.50000E-01
          3.6600       0.0000       1.4000       1.3500      0.30000
         0.60000      0.20000      0.10000       0.0000       0.0000      /
   3941 'SEXS'   NG   0.10000       10.000       100.00      0.10000
          0.0000       3.0000      /
   3941 'GAST'   NG   0.33000      0.50000      0.50000       3.0000
          1.0000       2.0000       1.0000       0.0000       0.0000      /
   3945 'GENROU' DG    6.0000      0.50000       1.0000      0.50000E-01
          3.6600       0.0000       1.4000       1.3500      0.30000
         0.60000      0.20000      0.10000       0.0000       0.0000      /
   3945 'SEXS'   DG   0.10000       10.000       100.00      0.10000
          0.0000       3.0000      /
   3945 'GAST'   DG   0.33000      0.50000      0.50000       3.0000
          1.0000       2.0000       1.0000       0.0000       0.0000      /
   3948 'GENROU' MG    6.0000      0.50000       1.0000      0.50000E-01
          3.6600       0.0000       1.4000       1.3500      0.30000
         0.60000      0.20000      0.10000       0.0000       0.0000      /
   3948 'SEXS'   MG   0.10000       10.000       100.00      0.10000
          0.0000       3.0000      /
   3948 'GAST'   MG   0.33000      0.50000      0.50000       3.0000
          1.0000       2.0000       1.0000       0.0000       0.0000      /
   3944 'GENROU' NG    6.0000      0.50000       1.0000      0.50000E-01
          3.6600       0.0000       1.4000       1.3500      0.30000
         0.60000      0.20000      0.10000       0.0000       0.0000      /
   3944 'SEXS'   NG   0.10000       10.000       100.00      0.10000
          0.0000       3.0000      /
   3944 'GAST'   NG   0.33000      0.50000      0.50000       3.0000
          1.0000       2.0000       1.0000       0.0000       0.0000      /
   3950 'GENROU' CG    6.0000      0.50000       1.0000      0.50000E-01
          3.6600       0.0000       1.4000       1.3500      0.30000
         0.60000      0.20000      0.10000       0.0000       0.0000      /
   3950 'SEXS'   CG   0.10000       10.000       100.00      0.10000
          0.0000       3.0000      /
   3950 'GAST'   CG   0.33000      0.50000      0.50000       3.0000
          1.0000       2.0000       1.0000       0.0000       0.0000      /
   3951 'GENROU' NG    6.0000      0.50000       1.0000      0.50000E-01
          3.6600       0.0000       1.4000       1.3500      0.30000
         0.60000      0.20000      0.10000       0.0000       0.0000      /
   3951 'SEXS'   NG   0.10000       10.000       100.00      0.10000
          0.0000       3.0000      /
   3951 'GAST'   NG   0.33000      0.50000      0.50000       3.0000
          1.0000       2.0000       1.0000       0.0000       0.0000      /
   3432 'GENROU' NP    6.0000      0.50000       1.0000      0.50000E-01
          3.6600       0.0000       1.4000       1.3500      0.30000
         0.60000      0.20000      0.10000       0.0000       0.0000      /
   3432 'SEXS'   NP   0.10000       10.000       100.00      0.10000
          0.0000       3.0000      /
   3432 'TGOV1'  NP   0.33000       2.0000       1.0000       0.0000
          3.0000       15.000      0.40000      /
   3953 'GENROU' NG    6.0000      0.50000       1.0000      0.50000E-01
          3.6600       0.0000       1.4000       1.3500      0.30000
         0.60000      0.20000      0.10000       0.0000       0.0000      /
   3953 'SEXS'   NG   0.10000       10.000       100.00      0.10000
          0.0000       3.0000      /
   3953 'GAST'   NG   0.33000      0.50000      0.50000       3.0000
          1.0000       2.0000       1.0000       0.0000       0.0000      /
   3531 'GENROU' CE    6.0000      0.50000       1.0000      0.50000E-01
          3.6600       0.0000       1.4000       1.3500      0.30000
         0.60000      0.20000      0.10000       0.0000       0.0000      /
   3531 'SEXS'   CE   0.10000       10.000       100.00      0.10000
          0.0000       3.0000      /
   3531 'TGOV1'  CE   0.33000       2.0000       1.0000       0.0000
          3.0000       15.000      0.40000      /
   3531 'GENROU' NE    6.0000      0.50000       1.0000      0.50000E-01
          3.6600       0.0000       1.4000       1.3500      0.30000
         0.60000      0.20000      0.10000       0.0000       0.0000      /
   3531 'SEXS'   NE   0.10000       10.000       100.00      0.10000
          0.0000       3.0000      /
   3531 'TGOV1'  NE   0.33000       2.0000       1.0000       0.0000
          3.0000       15.000      0.40000      /
   3531 'GENROU' NH    6.0000      0.50000       1.0000      0.50000E-01
          3.6600       0.0000       1.4000       1.3500      0.30000
         0.60000      0.20000      0.10000       0.0000       0.0000      /
   3531 'SEXS'   NH   0.10000       10.000       100.00      0.10000
          0.0000       3.0000      /
   3531 'HYGOV'  NH   0.33000       1.0000       10.000      0.50000E-01
          10.000      0.10000E-02   1.0000       0.0000       1.0000
          1.5000       0.0000      0.80000E-01  /
   4235 'GENROU' NB    6.0000      0.50000       1.0000      0.50000E-01
          3.6600       0.0000       1.4000       1.3500      0.30000
         0.60000      0.20000      0.10000       0.0000       0.0000      /
   4235 'SEXS'   NB   0.10000       10.000       100.00      0.10000
          0.0000       3.0000      /
   4235 'TGOV1'  NB   0.33000       2.0000       1.0000       0.0000
          3.0000       15.000      0.40000      /
   4234 'GENROU' NG    6.0000      0.50000       1.0000      0.50000E-01
          3.6600       0.0000       1.4000       1.3500      0.30000
         0.60000      0.20000      0.10000       0.0000       0.0000      /
   4234 'SEXS'   NG   0.10000       10.000       100.00      0.10000
          0.0000       3.0000      /
   4234 'GAST'   NG   0.33000      0.50000      0.50000       3.0000
          1.0000       2.0000       1.0000       0.0000       0.0000      /
   3731 'GENROU' NH    6.0000      0.50000       1.0000      0.50000E-01
          2.7900       0.0000       1.4000       1.3500      0.30000
         0.60000      0.20000      0.10000       0.0000       0.0000      /
   3731 'SEXS'   NH   0.10000       10.000       100.00      0.10000
          0.0000       3.0000      /
   3731 'HYGOV'  NH   0.33000       1.0000       10.000      0.50000E-01
          10.000      0.10000E-02   1.0000       0.0000       1.0000
          1.5000       0.0000      0.80000E-01  /
   3831 'GENROU' NN    6.0000      0.50000       1.0000      0.50000E-01
          3.6600       0.0000       1.4000       1.3500      0.30000
         0.60000      0.20000      0.10000       0.0000       0.0000      /
   3831 'SEXS'   NN   0.10000       10.000       100.00      0.10000
          0.0000       3.0000      /
   3831 'TGOV1'  NN   0.33000       2.0000       1.0000       0.0000
          3.0000       15.000      0.40000      /
   4238 'GENROU' ND    6.0000      0.50000       1.0000      0.50000E-01
          3.6600       0.0000       1.4000       1.3500      0.30000
         0.60000      0.20000      0.10000       0.0000       0.0000      /
   4238 'SEXS'   ND   0.10000       10.000       100.00      0.10000
          0.0000       3.0000      /
   4238 'TGOV1'  ND   0.33000       2.0000       1.0000       0.0000
          3.0000       15.000      0.40000      /
   4236 'GENROU' NG    6.0000      0.50000       1.0000      0.50000E-01
          3.6600       0.0000       1.4000       1.3500      0.30000
         0.60000      0.20000      0.10000       0.0000       0.0000      /
   4236 'SEXS'   NG   0.10000       10.000       100.00      0.10000
          0.0000       3.0000      /
   4236 'GAST'   NG   0.33000      0.50000      0.50000       3.0000
          1.0000       2.0000       1.0000       0.0000       0.0000      /
   4239 'GENROU' DG    6.0000      0.50000       1.0000      0.50000E-01
          3.6600       0.0000       1.4000       1.3500      0.30000
         0.60000      0.20000      0.10000       0.0000       0.0000      /
   4239 'SEXS'   DG   0.10000       10.000       100.00      0.10000
          0.0000       3.0000      /
   4239 'GAST'   DG   0.33000      0.50000      0.50000       3.0000
          1.0000       2.0000       1.0000       0.0000       0.0000      /
   3931 'GENROU' NB    6.0000      0.50000       1.0000      0.50000E-01
          3.6600       0.0000       1.4000       1.3500      0.30000
         0.60000      0.20000      0.10000       0.0000       0.0000      /
   3931 'SEXS'   NB   0.10000       10.000       100.00      0.10000
          0.0000       3.0000      /
   3931 'TGOV1'  NB   0.33000       2.0000       1.0000       0.0000
          3.0000       15.000      0.40000      /
   3931 'GENROU' NH    6.0000      0.50000       1.0000      0.50000E-01
          3.6600       0.0000       1.4000       1.3500      0.30000
         0.60000      0.20000      0.10000       0.0000       0.0000      /
   3931 'IEEEST' NH         1            0       1.0130      0.13000E-01
          0.0000       0.0000       1.0130      0.11300       10.000
         0.20000E-01   0.0000       0.0000       1.6500       1.6500
          3.0000      0.10000     -0.10000       0.0000       0.0000      /
   3931 'SEXS'   NH   0.10000       10.000       100.00      0.10000
          0.0000       3.0000      /
   3931 'HYGOV'  NH   0.33000       1.0000       10.000      0.50000E-01
          10.000      0.10000E-02   1.0000       0.0000       1.0000
          1.5000       0.0000      0.80000E-01  /
   4246 'GENROU' CG    6.0000      0.50000       1.0000      0.50000E-01
          3.6600       0.0000       1.4000       1.3500      0.30000
         0.60000      0.20000      0.10000       0.0000       0.0000      /
   4246 'SEXS'   CG   0.10000       10.000       100.00      0.10000
          0.0000       3.0000      /
   4246 'GAST'   CG   0.33000      0.50000      0.50000       3.0000
          1.0000       2.0000       1.0000       0.0000       0.0000      /
   4244 'GENROU' NB    6.0000      0.50000       1.0000      0.50000E-01
          3.6600       0.0000       1.4000       1.3500      0.30000
         0.60000      0.20000      0.10000       0.0000       0.0000      /
   4244 'SEXS'   NB   0.10000       10.000       100.00      0.10000
          0.0000       3.0000      /
   4244 'TGOV1'  NB   0.33000       2.0000       1.0000       0.0000
          3.0000       15.000      0.40000      /
   4242 'GENROU' ND    6.0000      0.50000       1.0000      0.50000E-01
          3.6600       0.0000       1.4000       1.3500      0.30000
         0.60000      0.20000      0.10000       0.0000       0.0000      /
   4242 'SEXS'   ND   0.10000       10.000       100.00      0.10000
          0.0000       3.0000      /
   4242 'TGOV1'  ND   0.33000       2.0000       1.0000       0.0000
          3.0000       15.000      0.40000      /
   4247 'GENROU' NG    6.0000      0.50000       1.0000      0.50000E-01
          3.6600       0.0000       1.4000       1.3500      0.30000
         0.60000      0.20000      0.10000       0.0000       0.0000      /
   4247 'SEXS'   NG   0.10000       10.000       100.00      0.10000
          0.0000       3.0000      /
   4247 'GAST'   NG   0.33000      0.50000      0.50000       3.0000
          1.0000       2.0000       1.0000       0.0000       0.0000      /
   4243 'GENROU' NH    6.0000      0.50000       1.0000      0.50000E-01
          3.6600       0.0000       1.4000       1.3500      0.30000
         0.60000      0.20000      0.10000       0.0000       0.0000      /
   4243 'SEXS'   NH   0.10000       10.000       100.00      0.10000
          0.0000       3.0000      /
   4243 'HYGOV'  NH   0.33000       1.0000       10.000      0.50000E-01
          10.000      0.10000E-02   1.0000       0.0000       1.0000
          1.5000       0.0000      0.80000E-01  /