0,   100.0, 33, 0, 1, 60.00     /  PSS(R)E 33 RAW created by Sienna2PF.jl  19-Mar-24-16-0
File Name: basic_2024
         
2030, 'BUS_2030', 20.0, 2, 2, 7, 1, 1.0015, -18.915430304308344, 1.1, 0.9, 1.1, 0.9
3907, 'BUS_3907', 230.0, 2, 2, 2, 1, 0.97274, -11.175864448793888, 1.1, 0.9, 1.1, 0.9
3913, 'BUS_3913', 230.0, 2, 2, 2, 1, 0.98301, -6.251361457473296, 1.1, 0.9, 1.1, 0.9
1451, 'BUS_1451', 20.0, 2, 1, 3, 1, 1.04071, -10.264092928945702, 1.1, 0.9, 1.1, 0.9
3301, 'BUS_3301', 500.0, 1, 2, 2, 1, 0.9986391903866778, 1.6980282939988007, 1.1, 0.9, 1.1, 0.9
2603, 'BUS_2603', 500.0, 1, 2, 2, 1, 1.055096970585044, -11.16504992086973, 1.1, 0.9, 1.1, 0.9
6305, 'BUS_6305', 230.0, 1, 3, 14, 1, 1.0677007126832805, 70.58488994882038, 1.1, 0.9, 1.1, 0.9
7041, 'BUS_7041', 20.0, 2, 3, 5, 1, 1.06004, 14.624909841185698, 1.1, 0.9, 1.1, 0.9
7045, 'BUS_7045', 20.0, 1, 3, 5, 1, 1.0165310700732237, 17.642940155153696, 1.1, 0.9, 1.1, 0.9
2913, 'BUS_2913', 20.0, 2, 2, 2, 1, 1.00984, -14.574857311659954, 1.1, 0.9, 1.1, 0.9
1432, 'BUS_1432', 20.0, 2, 1, 10, 1, 1.01695, 21.57899818761218, 1.1, 0.9, 1.1, 0.9
3912, 'BUS_3912', 230.0, 1, 2, 2, 1, 0.9967691526316855, 3.175808641109752, 1.1, 0.9, 1.1, 0.9
2533, 'BUS_2533', 20.0, 2, 2, 2, 1, 1.01004, -27.969505974736673, 1.1, 0.9, 1.1, 0.9
1001, 'BUS_1001', 500.0, 1, 1, 3, 1, 1.0252067825260633, 16.345443457916776, 1.1, 0.9, 1.1, 0.9
3836, 'BUS_3836', 230.0, 1, 2, 2, 1, 1.0190222839561867, -2.5808380767961605, 1.1, 0.9, 1.1, 0.9
3902, 'BUS_3902', 500.0, 1, 2, 2, 1, 1.0000956265026897, 3.1950408824815897, 1.1, 0.9, 1.1, 0.9
3404, 'BUS_3404', 230.0, 2, 2, 2, 1, 0.99111, -5.899564529207985, 1.1, 0.9, 1.1, 0.9
6203, 'BUS_6203', 230.0, 1, 3, 8, 1, 1.084284435639818, 64.76192625895445, 1.1, 0.9, 1.1, 0.9
2502, 'BUS_2502', 230.0, 2, 2, 2, 1, 1.02225, -24.974761842686245, 1.1, 0.9, 1.1, 0.9
6231, 'BUS_6231', 500.0, 1, 3, 8, 1, 1.1010350912286015, 70.65734374045653, 1.1, 0.9, 1.1, 0.9
2438, 'BUS_2438', 230.0, 1, 2, 2, 1, 1.009022856339321, -14.574857311659954, 1.1, 0.9, 1.1, 0.9
2614, 'BUS_2614', 230.0, 1, 2, 2, 1, 1.0019656361765887, -9.004344098575727, 1.1, 0.9, 1.1, 0.9
6403, 'BUS_6403', 345.0, 1, 1, 9, 1, 1.095721966183627, 38.550217804491254, 1.1, 0.9, 1.1, 0.9
2608, 'BUS_2608', 230.0, 1, 2, 2, 1, 1.0198978141328277, -13.732066310146426, 1.1, 0.9, 1.1, 0.9
3909, 'BUS_3909', 230.0, 1, 2, 2, 1, 0.9608026486084801, -5.561664278666481, 1.1, 0.9, 1.1, 0.9
6505, 'BUS_6505', 345.0, 1, 3, 12, 1, 1.0426374514736847, 30.986049074329475, 1.1, 0.9, 1.1, 0.9
6546, 'BUS_6546', 20.0, 1, 3, 14, 1, 1.1093180196102523, 76.38777573088392, 1.1, 0.9, 1.1, 0.9
6304, 'BUS_6304', 230.0, 1, 3, 14, 1, 1.01248894332676, 30.460693146017853, 1.1, 0.9, 1.1, 0.9
1439, 'BUS_1439', 20.0, 2, 1, 3, 1, 1.01081, -5.636873282249267, 1.1, 0.9, 1.1, 0.9
2612, 'BUS_2612', 230.0, 1, 2, 2, 1, 1.015011471488816, -13.136316994610132, 1.1, 0.9, 1.1, 0.9
3403, 'BUS_3403', 230.0, 2, 2, 2, 1, 1.0, -0.6213565635044167, 1.1, 0.9, 1.1, 0.9
2439, 'BUS_2439', 20.0, 2, 2, 2, 1, 1.01978, -22.182805065135394, 1.1, 0.9, 1.1, 0.9
3948, 'BUS_3948', 20.0, 2, 2, 2, 1, 1.01213, 5.391188275990917, 1.1, 0.9, 1.1, 0.9
1202, 'BUS_1202', 500.0, 1, 1, 3, 1, 1.0793401678414247, -0.34595084130417614, 1.1, 0.9, 1.1, 0.9
1448, 'BUS_1448', 20.0, 2, 1, 9, 1, 1.00879, -9.751913812878286, 1.1, 0.9, 1.1, 0.9
4248, 'BUS_4248', 20.0, 2, 3, 11, 1, 1.08568, 26.141303902316068, 1.1, 0.9, 1.1, 0.9
1435, 'BUS_1435', 20.0, 1, 1, 10, 1, 1.0414248195811762, 34.228876483650275, 1.1, 0.9, 1.1, 0.9
3942, 'BUS_3942', 20.0, 2, 2, 2, 1, 1.00044, -10.431243468254863, 1.1, 0.9, 1.1, 0.9
3911, 'BUS_3911', 230.0, 1, 2, 2, 1, 1.0244305557857438, 13.84595505408504, 1.1, 0.9, 1.1, 0.9
6553, 'BUS_6553', 20.0, 1, 1, 9, 1, 1.096173037531036, 38.70201862268784, 1.1, 0.9, 1.1, 0.9
1302, 'BUS_1302', 500.0, 1, 1, 9, 1, 1.0266250076061536, -7.71821003236828, 1.1, 0.9, 1.1, 0.9
7033, 'BUS_7033', 20.0, 1, 3, 12, 1, 1.0630083860445165, 46.28515935684038, 1.1, 0.9, 1.1, 0.9
5036, 'BUS_5036', 20.0, 2, 3, 1, 1, 1.06127, 67.28343261339616, 1.1, 0.9, 1.1, 0.9
6539, 'BUS_6539', 20.0, 1, 3, 8, 1, 1.1010350912286015, 70.65734374045653, 1.1, 0.9, 1.1, 0.9
3932, 'BUS_3932', 20.0, 2, 2, 2, 1, 0.99997, 3.5831972857296983, 1.1, 0.9, 1.1, 0.9
3105, 'BUS_3105', 115.0, 1, 2, 2, 1, 0.9997009104512226, -10.620858968293156, 1.1, 0.9, 1.1, 0.9
2601, 'BUS_2601', 500.0, 1, 2, 2, 1, 1.0474793084499745, -11.749658151964567, 1.1, 0.9, 1.1, 0.9
3432, 'BUS_3432', 20.0, 2, 2, 2, 1, 1.00065, -10.285180093587758, 1.1, 0.9, 1.1, 0.9
7037, 'BUS_7037', 20.0, 2, 3, 12, 1, 1.06786, 47.188951800492504, 1.1, 0.9, 1.1, 0.9
5034, 'BUS_5034', 20.0, 1, 3, 1, 1, 1.0460410221699168, 67.34885453446186, 1.1, 0.9, 1.1, 0.9
1034, 'BUS_1034', 345.0, 1, 1, 10, 1, 1.0414248195811762, 34.228876483650275, 1.1, 0.9, 1.1, 0.9
1441, 'BUS_1441', 20.0, 2, 1, 3, 1, 1.01081, -6.928417291639033, 1.1, 0.9, 1.1, 0.9
4273, 'BUS_4273', 20.0, 2, 3, 13, 1, 1.05964, 42.74370185535719, 1.1, 0.9, 1.1, 0.9
5001, 'BUS_5001', 500.0, 1, 3, 4, 1, 1.0483867932765314, 62.00934738420899, 1.1, 0.9, 1.1, 0.9
6506, 'BUS_6506', 345.0, 1, 3, 12, 1, 1.0392296893235462, 27.89314665571363, 1.1, 0.9, 1.1, 0.9
5002, 'BUS_5002', 500.0, 1, 3, 1, 1, 1.0474857358275165, 62.877844558510176, 1.1, 0.9, 1.1, 0.9
3531, 'BUS_3531', 20.0, 2, 2, 2, 1, 1.00057, 3.870882119890077, 1.1, 0.9, 1.1, 0.9
4260, 'BUS_4260', 20.0, 1, 3, 13, 1, 1.116315799514337, 40.19693837115517, 1.1, 0.9, 1.1, 0.9
1403, 'BUS_1403', 230.0, 1, 1, 3, 1, 1.0361548816587374, -12.717293334614713, 1.1, 0.9, 1.1, 0.9
4234, 'BUS_4234', 20.0, 2, 2, 2, 1, 1.01496, 13.692642169722513, 1.1, 0.9, 1.1, 0.9
5037, 'BUS_5037', 20.0, 2, 3, 1, 1, 1.06127, 68.64839101530497, 1.1, 0.9, 1.1, 0.9
4267, 'BUS_4267', 20.0, 2, 3, 13, 1, 1.09978, 61.657588827445686, 1.1, 0.9, 1.1, 0.9
3805, 'BUS_3805', 230.0, 2, 2, 2, 1, 1.035, -5.994610428992574, 1.1, 0.9, 1.1, 0.9
4269, 'BUS_4269', 20.0, 2, 3, 13, 1, 1.12161, 64.35084477596227, 1.1, 0.9, 1.1, 0.9
7034, 'BUS_7034', 20.0, 2, 3, 12, 1, 1.06786, 45.61405153399918, 1.1, 0.9, 1.1, 0.9
6510, 'BUS_6510', 230.0, 2, 3, 12, 1, 0.928, 34.92651135111223, 1.1, 0.9, 1.1, 0.9
4131, 'BUS_4131', 500.0, 1, 3, 13, 1, 1.1179843407707424, 69.92025532409282, 1.1, 0.9, 1.1, 0.9
4007, 'BUS_4007', 500.0, 1, 3, 11, 1, 1.1067170950881793, 41.572249800939794, 1.1, 0.9, 1.1, 0.9
2609, 'BUS_2609', 230.0, 1, 2, 2, 1, 0.9996645993725448, -10.87491862819076, 1.1, 0.9, 1.1, 0.9
4010, 'BUS_4010', 230.0, 1, 3, 11, 1, 1.1128705353597235, 39.710905561531774, 1.1, 0.9, 1.1, 0.9
6552, 'BUS_6552', 20.0, 2, 3, 14, 1, 1.06507, 71.07210569822803, 1.1, 0.9, 1.1, 0.9
2130, 'BUS_2130', 230.0, 1, 2, 2, 1, 1.0347520669062824, -13.659925857731473, 1.1, 0.9, 1.1, 0.9
3926, 'BUS_3926', 115.0, 1, 2, 2, 1, 0.9842423180284983, -4.545319872582288, 1.1, 0.9, 1.1, 0.9
7044, 'BUS_7044', 20.0, 2, 3, 5, 1, 1.00996, 18.183280652185033, 1.1, 0.9, 1.1, 0.9
3401, 'BUS_3401', 230.0, 2, 2, 2, 1, 0.97902, -11.143737491764004, 1.1, 0.9, 1.1, 0.9
4241, 'BUS_4241', 20.0, 1, 2, 2, 1, 1.0160742339242885, -1.1943951328457663, 1.1, 0.9, 1.1, 0.9
1433, 'BUS_1433', 20.0, 2, 1, 10, 1, 1.01695, 21.714968600233075, 1.1, 0.9, 1.1, 0.9
6545, 'BUS_6545', 20.0, 1, 3, 8, 1, 1.0815803054003552, 70.65311592098917, 1.1, 0.9, 1.1, 0.9
2604, 'BUS_2604', 345.0, 1, 2, 2, 1, 1.0577816624305516, 30.224435276476, 1.1, 0.9, 1.1, 0.9
2610, 'BUS_2610', 230.0, 1, 2, 2, 1, 1.0029327418265437, 3.115709032481721, 1.1, 0.9, 1.1, 0.9
6550, 'BUS_6550', 20.0, 1, 3, 14, 1, 1.0673070675947438, 70.74146116622407, 1.1, 0.9, 1.1, 0.9
2619, 'BUS_2619', 230.0, 1, 2, 2, 1, 1.0138487526381685, -12.746694097048247, 1.1, 0.9, 1.1, 0.9
4258, 'BUS_4258', 20.0, 1, 3, 13, 1, 1.1162255994438723, 40.9253057002088, 1.1, 0.9, 1.1, 0.9
3919, 'BUS_3919', 230.0, 1, 2, 2, 1, 0.9610534562742649, -2.8097844321549377, 1.1, 0.9, 1.1, 0.9
2607, 'BUS_2607', 287.0, 1, 2, 2, 1, 1.047499522265189, -10.86111750075367, 1.1, 0.9, 1.1, 0.9
3917, 'BUS_3917', 230.0, 1, 2, 2, 1, 1.0017609197102222, -4.0258900546490635, 1.1, 0.9, 1.1, 0.9
1436, 'BUS_1436', 20.0, 2, 1, 10, 1, 1.04386, 36.16668452834069, 1.1, 0.9, 1.1, 0.9
7040, 'BUS_7040', 20.0, 2, 3, 5, 1, 1.06004, 14.856740223130362, 1.1, 0.9, 1.1, 0.9
7042, 'BUS_7042', 20.0, 1, 3, 5, 1, 1.0510533346270408, 14.624909841185698, 1.1, 0.9, 1.1, 0.9
3924, 'BUS_3924', 230.0, 2, 2, 2, 1, 0.99219, 0.0017028971421492165, 1.1, 0.9, 1.1, 0.9
3501, 'BUS_3501', 230.0, 2, 2, 2, 1, 1.0, 3.56624078223657, 1.1, 0.9, 1.1, 0.9
3302, 'BUS_3302', 230.0, 2, 2, 2, 1, 0.98522, -4.55565543846748, 1.1, 0.9, 1.1, 0.9
6204, 'BUS_6204', 230.0, 1, 3, 8, 1, 1.0892001309583503, 58.94820743339128, 1.1, 0.9, 1.1, 0.9
4262, 'BUS_4262', 20.0, 2, 3, 13, 1, 1.12, 70.26344384220542, 1.1, 0.9, 1.1, 0.9
5032, 'BUS_5032', 500.0, 1, 3, 1, 1, 1.0484986457798464, 63.425150461851494, 1.1, 0.9, 1.1, 0.9
3946, 'BUS_3946', 20.0, 1, 2, 2, 1, 1.00982665949533, 3.655710435755387, 1.1, 0.9, 1.1, 0.9
8004, 'BUS_8004', 230.0, 2, 2, 2, 1, 1.0, -11.631547195609713, 1.1, 0.9, 1.1, 0.9
3835, 'BUS_3835', 230.0, 1, 2, 2, 1, 1.035078243206886, -5.975410325958369, 1.1, 0.9, 1.1, 0.9
2100, 'BUS_2100', 230.0, 1, 2, 2, 1, 1.0346021209222993, -13.729287293292721, 1.1, 0.9, 1.1, 0.9
2410, 'BUS_2410', 230.0, 2, 2, 2, 1, 1.00702, -17.653140063680933, 1.1, 0.9, 1.1, 0.9
2613, 'BUS_2613', 230.0, 2, 2, 2, 1, 0.99456, -7.484346150250291, 1.1, 0.9, 1.1, 0.9
4005, 'BUS_4005', 500.0, 1, 3, 11, 1, 1.1109303941577005, 44.21501762376118, 1.1, 0.9, 1.1, 0.9
2503, 'BUS_2503', 230.0, 2, 2, 2, 1, 1.009, -28.50332511950658, 1.1, 0.9, 1.1, 0.9
2638, 'BUS_2638', 20.0, 2, 2, 2, 1, 1.02018, -13.732066310146426, 1.1, 0.9, 1.1, 0.9
3333, 'BUS_3333', 230.0, 1, 2, 2, 1, 1.0002633985321832, -1.2026419643780204, 1.1, 0.9, 1.1, 0.9
1452, 'BUS_1452', 20.0, 2, 1, 3, 1, 1.04071, -8.09268146047404, 1.1, 0.9, 1.1, 0.9
4254, 'BUS_4254', 20.0, 2, 3, 11, 1, 1.12, 44.90548664391489, 1.1, 0.9, 1.1, 0.9
4272, 'BUS_4272', 20.0, 2, 3, 13, 1, 1.12, 62.557642191202014, 1.1, 0.9, 1.1, 0.9
6538, 'BUS_6538', 20.0, 2, 3, 6, 1, 1.12, 62.15484683232824, 1.1, 0.9, 1.1, 0.9
2904, 'BUS_2904', 20.0, 1, 2, 2, 1, 1.034751024230308, -13.578587724895119, 1.1, 0.9, 1.1, 0.9
6508, 'BUS_6508', 345.0, 1, 3, 12, 1, 1.0199954655745154, 36.83633831802641, 1.1, 0.9, 1.1, 0.9
6543, 'BUS_6543', 20.0, 2, 3, 8, 1, 1.07761, 70.44580972398177, 1.1, 0.9, 1.1, 0.9
2402, 'BUS_2402', 500.0, 2, 2, 2, 1, 1.02985, -20.57061821589081, 1.1, 0.9, 1.1, 0.9
1434, 'BUS_1434', 20.0, 1, 1, 10, 1, 1.0131474402609133, 21.436317553216863, 1.1, 0.9, 1.1, 0.9
2409, 'BUS_2409', 230.0, 2, 2, 2, 1, 1.02, -22.23788786878794, 1.1, 0.9, 1.1, 0.9
4031, 'BUS_4031', 500.0, 1, 3, 11, 1, 1.076451741549663, 25.168581852443275, 1.1, 0.9, 1.1, 0.9
4250, 'BUS_4250', 20.0, 1, 3, 11, 1, 1.076443111148642, 25.39801498042039, 1.1, 0.9, 1.1, 0.9
6302, 'BUS_6302', 345.0, 1, 3, 14, 1, 1.0345524458140214, 16.406311410038832, 1.1, 0.9, 1.1, 0.9
6536, 'BUS_6536', 20.0, 2, 3, 6, 1, 1.12, 63.4196181789933, 1.1, 0.9, 1.1, 0.9
1442, 'BUS_1442', 20.0, 1, 1, 3, 1, 1.0794705842750913, -0.1829320761283869, 1.1, 0.9, 1.1, 0.9
3937, 'BUS_3937', 20.0, 1, 2, 2, 1, 1.0581533919330206, 30.303113034173034, 1.1, 0.9, 1.1, 0.9
6303, 'BUS_6303', 230.0, 1, 3, 14, 1, 1.1087696707399817, 75.47958360493429, 1.1, 0.9, 1.1, 0.9
1446, 'BUS_1446', 20.0, 2, 1, 3, 1, 1.04514, -6.635321094666719, 1.1, 0.9, 1.1, 0.9
4246, 'BUS_4246', 20.0, 2, 2, 2, 1, 1.02, -1.1935990903584461, 1.1, 0.9, 1.1, 0.9
4261, 'BUS_4261', 20.0, 1, 3, 13, 1, 1.1179536897137177, 70.34452646338093, 1.1, 0.9, 1.1, 0.9
2434, 'BUS_2434', 20.0, 2, 2, 2, 1, 1.02, -12.618478276792422, 1.1, 0.9, 1.1, 0.9
1443, 'BUS_1443', 20.0, 2, 1, 3, 1, 1.08082, 0.2863068086383822, 1.1, 0.9, 1.1, 0.9
4274, 'BUS_4274', 20.0, 1, 3, 13, 1, 1.057756819905042, 42.851690919698676, 1.1, 0.9, 1.1, 0.9
1303, 'BUS_1303', 345.0, 2, 1, 9, 1, 1.005, -10.2182318120505, 1.1, 0.9, 1.1, 0.9
6507, 'BUS_6507', 345.0, 1, 3, 12, 1, 1.0257088884117898, 33.82755512936225, 1.1, 0.9, 1.1, 0.9
2912, 'BUS_2912', 20.0, 2, 2, 2, 1, 1.00984, -14.111516020527896, 1.1, 0.9, 1.1, 0.9
3803, 'BUS_3803', 500.0, 1, 2, 2, 1, 1.0404352712531255, -6.321459619805574, 1.1, 0.9, 1.1, 0.9
2000, 'BUS_2000', 230.0, 1, 2, 7, 1, 1.0000143951763065, -19.623997879348384, 1.1, 0.9, 1.1, 0.9
7031, 'BUS_7031', 345.0, 1, 3, 5, 1, 1.0510533346270408, 14.624909841185698, 1.1, 0.9, 1.1, 0.9
3910, 'BUS_3910', 230.0, 1, 2, 2, 1, 0.9474989896521476, -3.9359856962116617, 1.1, 0.9, 1.1, 0.9
4002, 'BUS_4002', 500.0, 1, 3, 11, 1, 1.1093358429956068, 33.48088939640207, 1.1, 0.9, 1.1, 0.9
6402, 'BUS_6402', 115.0, 1, 1, 9, 1, 1.003313552570829, 2.3544859882598006, 1.1, 0.9, 1.1, 0.9
6555, 'BUS_6555', 20.0, 2, 1, 9, 1, 1.1, 38.840695778991645, 1.1, 0.9, 1.1, 0.9
4201, 'BUS_4201', 500.0, 1, 3, 13, 1, 1.100315075923571, 61.659487211943095, 1.1, 0.9, 1.1, 0.9
2201, 'BUS_2201', 500.0, 1, 2, 2, 1, 0.9860218564745761, -31.07442436511544, 1.1, 0.9, 1.1, 0.9
1232, 'BUS_1232', 500.0, 1, 1, 3, 1, 1.0794705842750913, -0.1829320761283869, 1.1, 0.9, 1.1, 0.9
2901, 'BUS_2901', 500.0, 1, 2, 2, 1, 1.0991229078121032, -9.261673202743095, 1.1, 0.9, 1.1, 0.9
6501, 'BUS_6501', 345.0, 1, 3, 12, 1, 1.0087903371299536, 34.88970640239024, 1.1, 0.9, 1.1, 0.9
2401, 'BUS_2401', 500.0, 2, 2, 2, 1, 1.04969, -15.1841243489033, 1.1, 0.9, 1.1, 0.9
6533, 'BUS_6533', 345.0, 1, 3, 12, 1, 1.0631113108881716, 45.48787751571991, 1.1, 0.9, 1.1, 0.9
6549, 'BUS_6549', 20.0, 2, 3, 14, 1, 1.06507, 73.28966117608016, 1.1, 0.9, 1.1, 0.9
3806, 'BUS_3806', 230.0, 1, 2, 2, 1, 1.019027908798149, -2.6183028129056507, 1.1, 0.9, 1.1, 0.9
6503, 'BUS_6503', 345.0, 1, 3, 12, 1, 1.0625972532535102, 45.29935268938732, 1.1, 0.9, 1.1, 0.9
7043, 'BUS_7043', 20.0, 2, 3, 5, 1, 1.06004, 18.395036881621127, 1.1, 0.9, 1.1, 0.9
2233, 'BUS_2233', 230.0, 1, 2, 2, 1, 1.005322624312808, -34.2245688917043, 1.1, 0.9, 1.1, 0.9
3953, 'BUS_3953', 20.0, 2, 2, 2, 1, 1.00023, -0.3518308600549787, 1.1, 0.9, 1.1, 0.9
2916, 'BUS_2916', 20.0, 2, 2, 2, 1, 1.00984, -11.928851732599192, 1.1, 0.9, 1.1, 0.9
6544, 'BUS_6544', 20.0, 2, 3, 8, 1, 1.07761, 71.48410564203803, 1.1, 0.9, 1.1, 0.9
3204, 'BUS_3204', 230.0, 2, 2, 2, 1, 1.01, 2.0053085131776145, 1.1, 0.9, 1.1, 0.9
6554, 'BUS_6554', 20.0, 2, 1, 9, 1, 1.1, 39.412114743302006, 1.1, 0.9, 1.1, 0.9
2616, 'BUS_2616', 230.0, 1, 2, 2, 1, 0.9964381396489979, -7.804936106573771, 1.1, 0.9, 1.1, 0.9
4256, 'BUS_4256', 20.0, 2, 3, 11, 1, 1.12796, 45.55922203382829, 1.1, 0.9, 1.1, 0.9
4236, 'BUS_4236', 20.0, 2, 2, 2, 1, 1.03567, -5.807851919947928, 1.1, 0.9, 1.1, 0.9
8035, 'BUS_8035', 20.0, 2, 2, 2, 1, 1.00333, -9.091021106721941, 1.1, 0.9, 1.1, 0.9
3304, 'BUS_3304', 230.0, 2, 2, 2, 1, 0.98957, -3.3009058202330146, 1.1, 0.9, 1.1, 0.9
7046, 'BUS_7046', 20.0, 2, 3, 5, 1, 1.00996, 18.42664661831091, 1.1, 0.9, 1.1, 0.9
3402, 'BUS_3402', 230.0, 1, 2, 2, 1, 1.0000544753449943, -10.317351928384323, 1.1, 0.9, 1.1, 0.9
4035, 'BUS_4035', 500.0, 1, 3, 11, 1, 1.1121630526840247, 44.3328057038136, 1.1, 0.9, 1.1, 0.9
4235, 'BUS_4235', 20.0, 2, 2, 2, 1, 1.01496, 13.661776337224453, 1.1, 0.9, 1.1, 0.9
3940, 'BUS_3940', 20.0, 2, 2, 2, 1, 1.00114, -2.715134534300287, 1.1, 0.9, 1.1, 0.9
2617, 'BUS_2617', 230.0, 1, 2, 2, 1, 0.9976124330926144, -9.475374435837407, 1.1, 0.9, 1.1, 0.9
3915, 'BUS_3915', 230.0, 1, 2, 2, 1, 0.9902869013555992, -0.31405675527837973, 1.1, 0.9, 1.1, 0.9
6556, 'BUS_6556', 20.0, 1, 1, 9, 1, 1.0961743720813055, 38.61261289942095, 1.1, 0.9, 1.1, 0.9
2905, 'BUS_2905', 20.0, 2, 2, 2, 1, 1.03579, -13.057975057859055, 1.1, 0.9, 1.1, 0.9
3947, 'BUS_3947', 20.0, 1, 2, 2, 1, 1.0101398651520512, 2.2288782560964018, 1.1, 0.9, 1.1, 0.9
2611, 'BUS_2611', 230.0, 1, 2, 2, 1, 1.017718629868894, -12.929268271325764, 1.1, 0.9, 1.1, 0.9
2404, 'BUS_2404', 500.0, 1, 2, 2, 1, 1.0341234140471287, -10.233385511394738, 1.1, 0.9, 1.1, 0.9
1401, 'BUS_1401', 500.0, 2, 1, 3, 1, 1.035, -12.518069527326071, 1.1, 0.9, 1.1, 0.9
2630, 'BUS_2630', 230.0, 1, 2, 2, 1, 1.0030824796289672, 3.244934776731283, 1.1, 0.9, 1.1, 0.9
3802, 'BUS_3802', 500.0, 1, 2, 2, 1, 1.0352724215575668, -4.055999433409536, 1.1, 0.9, 1.1, 0.9
3920, 'BUS_3920', 230.0, 1, 2, 2, 1, 0.9749429794042992, -5.304486198571824, 1.1, 0.9, 1.1, 0.9
6551, 'BUS_6551', 20.0, 2, 3, 14, 1, 1.06507, 71.00261435780384, 1.1, 0.9, 1.1, 0.9
3903, 'BUS_3903', 500.0, 1, 2, 2, 1, 0.9998084126134561, 5.1629660406785876, 1.1, 0.9, 1.1, 0.9
1402, 'BUS_1402', 500.0, 2, 1, 3, 1, 1.05807, -17.893938992491197, 1.1, 0.9, 1.1, 0.9
3933, 'BUS_3933', 230.0, 1, 2, 2, 1, 1.0160742375241287, -1.1992181245882128, 1.1, 0.9, 1.1, 0.9
4104, 'BUS_4104', 230.0, 1, 3, 13, 1, 1.0568702139692299, 43.07835618846781, 1.1, 0.9, 1.1, 0.9
1438, 'BUS_1438', 20.0, 1, 1, 10, 1, 1.0409766857153908, 35.909781315292086, 1.1, 0.9, 1.1, 0.9
6101, 'BUS_6101', 500.0, 1, 3, 6, 1, 1.1410138180413105, 58.31449955829489, 1.1, 0.9, 1.1, 0.9
4240, 'BUS_4240', 20.0, 1, 2, 2, 1, 1.0190222839561867, -2.5808380767961605, 1.1, 0.9, 1.1, 0.9
2400, 'BUS_2400', 500.0, 2, 2, 2, 1, 1.0244, -21.16187670939474, 1.1, 0.9, 1.1, 0.9
4249, 'BUS_4249', 20.0, 2, 3, 11, 1, 1.08568, 25.509804648248203, 1.1, 0.9, 1.1, 0.9
4276, 'BUS_4276', 20.0, 1, 3, 13, 1, 1.0577777587885957, 42.49118044152985, 1.1, 0.9, 1.1, 0.9
3234, 'BUS_3234', 230.0, 1, 2, 2, 1, 1.0101398651520512, 2.2288782560964018, 1.1, 0.9, 1.1, 0.9
3936, 'BUS_3936', 20.0, 2, 2, 2, 1, 1.06198, 31.08680442440116, 1.1, 0.9, 1.1, 0.9
5035, 'BUS_5035', 20.0, 1, 3, 1, 1, 1.0484619276916955, 63.90465750519631, 1.1, 0.9, 1.1, 0.9
3905, 'BUS_3905', 500.0, 1, 2, 2, 1, 1.0056076637135853, 14.135118334106114, 1.1, 0.9, 1.1, 0.9
4001, 'BUS_4001', 500.0, 1, 3, 11, 1, 1.075540152393096, 25.083066254090227, 1.1, 0.9, 1.1, 0.9
3922, 'BUS_3922', 230.0, 1, 2, 2, 1, 0.9766661243915779, 3.1384744513110574, 1.1, 0.9, 1.1, 0.9
4132, 'BUS_4132', 500.0, 1, 3, 13, 1, 1.0915126903079, 59.1975641243794, 1.1, 0.9, 1.1, 0.9
3906, 'BUS_3906', 500.0, 1, 2, 2, 1, 1.0509078544245183, 21.107635733991767, 1.1, 0.9, 1.1, 0.9
6509, 'BUS_6509', 345.0, 1, 3, 12, 1, 1.0092576075367106, 34.412373727285534, 1.1, 0.9, 1.1, 0.9
8034, 'BUS_8034', 230.0, 1, 2, 2, 1, 1.0003363527124711, -11.451641368249204, 1.1, 0.9, 1.1, 0.9
3939, 'BUS_3939', 20.0, 2, 2, 2, 1, 1.00114, -2.714276191368665, 1.1, 0.9, 1.1, 0.9
8002, 'BUS_8002', 500.0, 1, 2, 2, 1, 1.0026353790724238, 4.713706835214148, 1.1, 0.9, 1.1, 0.9
7036, 'BUS_7036', 20.0, 2, 3, 12, 1, 1.06786, 47.33664618525183, 1.1, 0.9, 1.1, 0.9
1437, 'BUS_1437', 20.0, 2, 1, 10, 1, 1.04386, 36.93365143355147, 1.1, 0.9, 1.1, 0.9
4271, 'BUS_4271', 20.0, 2, 3, 13, 1, 1.12, 62.902781931363464, 1.1, 0.9, 1.1, 0.9
6205, 'BUS_6205', 230.0, 1, 3, 8, 1, 1.0820074525769239, 70.27072642131, 1.1, 0.9, 1.1, 0.9
3133, 'BUS_3133', 230.0, 1, 2, 2, 1, 1.0001341176400096, -2.715134534300287, 1.1, 0.9, 1.1, 0.9
4237, 'BUS_4237', 20.0, 1, 2, 2, 1, 1.035075960669526, -5.855084163132837, 1.1, 0.9, 1.1, 0.9
4257, 'BUS_4257', 20.0, 2, 3, 13, 1, 1.12, 40.27576013010713, 1.1, 0.9, 1.1, 0.9
2908, 'BUS_2908', 20.0, 2, 2, 2, 1, 1.00749, -33.77993420769555, 1.1, 0.9, 1.1, 0.9
2618, 'BUS_2618', 230.0, 2, 2, 2, 1, 1.01245, -14.257140622066421, 1.1, 0.9, 1.1, 0.9
1032, 'BUS_1032', 345.0, 1, 1, 10, 1, 1.0131766908748572, 21.00094246732742, 1.1, 0.9, 1.1, 0.9
3943, 'BUS_3943', 20.0, 1, 2, 2, 1, 0.9997875586744612, -10.608247446316954, 1.1, 0.9, 1.1, 0.9
3908, 'BUS_3908', 230.0, 1, 2, 2, 1, 0.9673216255517392, -9.987311336771892, 1.1, 0.9, 1.1, 0.9
6502, 'BUS_6502', 345.0, 1, 3, 12, 1, 1.009118634738045, 34.19855085019264, 1.1, 0.9, 1.1, 0.9
6433, 'BUS_6433', 345.0, 1, 1, 9, 1, 1.0961743720813055, 38.61261289942095, 1.1, 0.9, 1.1, 0.9
3405, 'BUS_3405', 230.0, 2, 2, 2, 1, 0.96928, -13.02663874462957, 1.1, 0.9, 1.1, 0.9
2917, 'BUS_2917', 20.0, 2, 2, 2, 1, 1.00984, -13.510922179210878, 1.1, 0.9, 1.1, 0.9
2909, 'BUS_2909', 20.0, 2, 2, 2, 1, 1.00749, -33.98132262016193, 1.1, 0.9, 1.1, 0.9
4263, 'BUS_4263', 20.0, 2, 3, 13, 1, 1.13267, 75.52366778436625, 1.1, 0.9, 1.1, 0.9
6540, 'BUS_6540', 20.0, 2, 3, 8, 1, 1.1, 70.72830481065616, 1.1, 0.9, 1.1, 0.9
2631, 'BUS_2631', 20.0, 2, 2, 2, 1, 1.018, -12.865117008520457, 1.1, 0.9, 1.1, 0.9
3952, 'BUS_3952', 20.0, 1, 2, 2, 1, 0.9999869674666841, -0.1311888601030579, 1.1, 0.9, 1.1, 0.9
2408, 'BUS_2408', 230.0, 2, 2, 2, 1, 1.009, -14.839191028688015, 1.1, 0.9, 1.1, 0.9
3901, 'BUS_3901', 500.0, 1, 2, 2, 1, 1.0155541334767064, -0.5700708345337787, 1.1, 0.9, 1.1, 0.9
3631, 'BUS_3631', 115.0, 1, 2, 2, 1, 1.0150532058241044, 13.636749992296805, 1.1, 0.9, 1.1, 0.9
4265, 'BUS_4265', 20.0, 2, 3, 13, 1, 1.09978, 60.39089103085032, 1.1, 0.9, 1.1, 0.9
3904, 'BUS_3904', 500.0, 1, 2, 2, 1, 0.9945692350525273, 5.872218508905347, 1.1, 0.9, 1.1, 0.9
5004, 'BUS_5004', 230.0, 1, 3, 4, 1, 1.0516412150141716, 49.60567807241966, 1.1, 0.9, 1.1, 0.9
2403, 'BUS_2403', 500.0, 2, 2, 2, 1, 1.0228, -24.7043000765005, 1.1, 0.9, 1.1, 0.9
6201, 'BUS_6201', 500.0, 1, 3, 8, 1, 1.1012061922317589, 70.54204011937595, 1.1, 0.9, 1.1, 0.9
8005, 'BUS_8005', 230.0, 2, 2, 2, 1, 0.97407, -5.055155489331365, 1.1, 0.9, 1.1, 0.9
2405, 'BUS_2405', 230.0, 2, 2, 2, 1, 1.01245, -14.157493049741268, 1.1, 0.9, 1.1, 0.9
2202, 'BUS_2202', 230.0, 2, 2, 2, 1, 0.98409, -32.570846054570545, 1.1, 0.9, 1.1, 0.9
6557, 'BUS_6557', 20.0, 2, 1, 9, 1, 1.1, 39.04977483893698, 1.1, 0.9, 1.1, 0.9
3950, 'BUS_3950', 20.0, 2, 2, 2, 1, 1.00226, -0.7225634999212366, 1.1, 0.9, 1.1, 0.9
4004, 'BUS_4004', 500.0, 1, 3, 11, 1, 1.1005814413648596, 35.01903528102033, 1.1, 0.9, 1.1, 0.9
4204, 'BUS_4204', 500.0, 1, 3, 13, 1, 1.0640387735011745, 26.055941870659726, 1.1, 0.9, 1.1, 0.9
3104, 'BUS_3104', 115.0, 2, 2, 2, 1, 0.9873, -10.215748647236286, 1.1, 0.9, 1.1, 0.9
3701, 'BUS_3701', 115.0, 1, 1, 9, 1, 1.0001117814998326, -1.6248605824734013, 1.1, 0.9, 1.1, 0.9
3945, 'BUS_3945', 20.0, 2, 2, 2, 1, 1.01213, 2.374584660042943, 1.1, 0.9, 1.1, 0.9
3804, 'BUS_3804', 230.0, 1, 2, 2, 1, 1.0031071682614383, -5.49229547167238, 1.1, 0.9, 1.1, 0.9
2910, 'BUS_2910', 20.0, 2, 2, 2, 1, 1.00749, -34.0525996930054, 1.1, 0.9, 1.1, 0.9
1431, 'BUS_1431', 500.0, 1, 1, 3, 1, 1.0354439709956578, -12.059670390449192, 1.1, 0.9, 1.1, 0.9
1444, 'BUS_1444', 20.0, 2, 1, 3, 1, 1.08082, 1.7901544047214561, 1.1, 0.9, 1.1, 0.9
3931, 'BUS_3931', 20.0, 2, 2, 2, 1, 1.07145, 24.708055485588503, 1.1, 0.9, 1.1, 0.9
4270, 'BUS_4270', 20.0, 1, 3, 13, 1, 1.102889094717946, 61.87299085483818, 1.1, 0.9, 1.1, 0.9
2501, 'BUS_2501', 500.0, 1, 2, 2, 1, 1.0248454789408894, -23.203857387231924, 1.1, 0.9, 1.1, 0.9
3921, 'BUS_3921', 230.0, 1, 2, 2, 1, 1.0700281612862526, 24.346481702217645, 1.1, 0.9, 1.1, 0.9
3918, 'BUS_3918', 230.0, 2, 2, 2, 1, 0.99368, -1.732363617138238, 1.1, 0.9, 1.1, 0.9
2606, 'BUS_2606', 287.0, 1, 2, 2, 1, 1.0207690293872111, -10.122852906280588, 1.1, 0.9, 1.1, 0.9
4231, 'BUS_4231', 500.0, 1, 3, 13, 1, 1.102889094717946, 61.87299085483818, 1.1, 0.9, 1.1, 0.9
3103, 'BUS_3103', 230.0, 2, 2, 2, 1, 1.0, -2.715191822396456, 1.1, 0.9, 1.1, 0.9
3305, 'BUS_3305', 230.0, 2, 2, 2, 1, 0.9981, -3.0920504344036654, 1.1, 0.9, 1.1, 0.9
6333, 'BUS_6333', 230.0, 1, 3, 14, 1, 1.1094040930705389, 75.6740519169224, 1.1, 0.9, 1.1, 0.9
3934, 'BUS_3934', 20.0, 1, 2, 2, 1, 1.0030824796289672, 3.244934776731283, 1.1, 0.9, 1.1, 0.9
3925, 'BUS_3925', 115.0, 1, 2, 2, 1, 1.0208954155345469, 13.722813855544935, 1.1, 0.9, 1.1, 0.9
8003, 'BUS_8003', 230.0, 2, 2, 2, 1, 1.075, 13.477412234307586, 1.1, 0.9, 1.1, 0.9
4251, 'BUS_4251', 20.0, 1, 3, 11, 1, 1.0764478394403274, 25.32285494876097, 1.1, 0.9, 1.1, 0.9
6541, 'BUS_6541', 20.0, 2, 3, 8, 1, 1.1, 72.3180648866967, 1.1, 0.9, 1.1, 0.9
3601, 'BUS_3601', 115.0, 1, 2, 2, 1, 1.0150656764149697, 13.631355986393379, 1.1, 0.9, 1.1, 0.9
7032, 'BUS_7032', 345.0, 1, 3, 5, 1, 1.0165742093355092, 17.115095681018026, 1.1, 0.9, 1.1, 0.9
8001, 'BUS_8001', 500.0, 1, 2, 2, 1, 1.0379097623682114, 14.135873055798678, 1.1, 0.9, 1.1, 0.9
1445, 'BUS_1445', 20.0, 1, 1, 3, 1, 1.0449648946983128, -8.186555411632192, 1.1, 0.9, 1.1, 0.9
1440, 'BUS_1440', 20.0, 1, 1, 3, 1, 1.0100632669628513, -7.374562304487889, 1.1, 0.9, 1.1, 0.9
3801, 'BUS_3801', 500.0, 1, 2, 2, 1, 1.0490153275480998, 1.2929926960736493, 1.1, 0.9, 1.1, 0.9
3949, 'BUS_3949', 20.0, 1, 2, 2, 1, 1.0002633985321832, -1.2026419643780204, 1.1, 0.9, 1.1, 0.9
3938, 'BUS_3938', 20.0, 1, 2, 2, 1, 1.0001341176400096, -2.715134534300287, 1.1, 0.9, 1.1, 0.9
1333, 'BUS_1333', 345.0, 1, 1, 9, 1, 1.00533050220955, -9.931569444760353, 1.1, 0.9, 1.1, 0.9
2615, 'BUS_2615', 230.0, 2, 2, 2, 1, 1.00558, -12.202120339101734, 1.1, 0.9, 1.1, 0.9
2903, 'BUS_2903', 20.0, 2, 2, 2, 1, 1.03579, -13.378734412714365, 1.1, 0.9, 1.1, 0.9
2914, 'BUS_2914', 20.0, 2, 2, 2, 1, 1.00984, -12.10896739863164, 1.1, 0.9, 1.1, 0.9
1101, 'BUS_1101', 500.0, 2, 1, 3, 1, 1.01, -7.5202500829578725, 1.1, 0.9, 1.1, 0.9
1331, 'BUS_1331', 500.0, 1, 1, 3, 1, 1.0449648946983128, -8.186555411632192, 1.1, 0.9, 1.1, 0.9
3951, 'BUS_3951', 20.0, 2, 2, 2, 1, 1.00226, -1.0603345098417825, 1.1, 0.9, 1.1, 0.9
8033, 'BUS_8033', 20.0, 2, 2, 2, 1, 1.07762, 13.763288542834282, 1.1, 0.9, 1.1, 0.9
4268, 'BUS_4268', 20.0, 2, 3, 13, 1, 1.09978, 64.28985720802538, 1.1, 0.9, 1.1, 0.9
7047, 'BUS_7047', 20.0, 2, 3, 5, 1, 1.00996, 17.599495832405335, 1.1, 0.9, 1.1, 0.9
4252, 'BUS_4252', 20.0, 2, 3, 11, 1, 1.12, 44.554745176712515, 1.1, 0.9, 1.1, 0.9
6102, 'BUS_6102', 345.0, 1, 3, 6, 1, 1.1212721406203472, 61.909174827023996, 1.1, 0.9, 1.1, 0.9
7001, 'BUS_7001', 345.0, 2, 3, 5, 1, 1.05, 14.36416835604912, 1.1, 0.9, 1.1, 0.9
4009, 'BUS_4009', 230.0, 1, 3, 11, 1, 1.1151251480537294, 40.08210111911775, 1.1, 0.9, 1.1, 0.9
6401, 'BUS_6401', 345.0, 2, 1, 9, 1, 1.02136, 8.528980907582417, 1.1, 0.9, 1.1, 0.9
2634, 'BUS_2634', 345.0, 1, 2, 2, 1, 1.0581533919330206, 30.303113034173034, 1.1, 0.9, 1.1, 0.9
7039, 'BUS_7039', 20.0, 1, 3, 5, 1, 1.0504756979550902, 16.52455516771878, 1.1, 0.9, 1.1, 0.9
4244, 'BUS_4244', 20.0, 2, 2, 2, 1, 1.02, -1.196983281431662, 1.1, 0.9, 1.1, 0.9
3203, 'BUS_3203', 230.0, 2, 2, 2, 1, 0.99787, -1.6948869116600778, 1.1, 0.9, 1.1, 0.9
4101, 'BUS_4101', 500.0, 1, 3, 13, 1, 1.1172685389611854, 69.4909075107583, 1.1, 0.9, 1.1, 0.9
5031, 'BUS_5031', 20.0, 2, 3, 4, 1, 1.04438, 63.985944606998615, 1.1, 0.9, 1.1, 0.9
6542, 'BUS_6542', 20.0, 1, 3, 8, 1, 1.0815956926068768, 70.34749325348207, 1.1, 0.9, 1.1, 0.9
2605, 'BUS_2605', 287.0, 1, 2, 2, 1, 1.0207690293872111, -10.122852906280588, 1.1, 0.9, 1.1, 0.9
4238, 'BUS_4238', 20.0, 2, 2, 2, 1, 1.03567, -5.975410325958369, 1.1, 0.9, 1.1, 0.9
8037, 'BUS_8037', 20.0, 2, 2, 2, 1, 1.00333, -11.121965493051528, 1.1, 0.9, 1.1, 0.9
2600, 'BUS_2600', 500.0, 1, 2, 2, 1, 1.055085721758085, -10.522528247675009, 1.1, 0.9, 1.1, 0.9
6104, 'BUS_6104', 230.0, 1, 3, 6, 1, 1.019794803454564, 50.52157058149378, 1.1, 0.9, 1.1, 0.9
1450, 'BUS_1450', 20.0, 2, 1, 9, 1, 1.00879, -6.898893478843347, 1.1, 0.9, 1.1, 0.9
3135, 'BUS_3135', 115.0, 1, 2, 2, 1, 0.9997875586744612, -10.608247446316954, 1.1, 0.9, 1.1, 0.9
4003, 'BUS_4003', 500.0, 1, 3, 11, 1, 1.1465277865374839, 45.072195557522015, 1.1, 0.9, 1.1, 0.9
3914, 'BUS_3914', 230.0, 1, 2, 2, 1, 0.9888187918063113, -0.24435209561204982, 1.1, 0.9, 1.1, 0.9
4090, 'BUS_4090', 500.0, 1, 3, 11, 1, 1.1046280795248906, 32.27719519416995, 1.1, 0.9, 1.1, 0.9
1004, 'BUS_1004', 345.0, 2, 1, 10, 1, 1.04133, 33.91224593270406, 1.1, 0.9, 1.1, 0.9
3202, 'BUS_3202', 230.0, 2, 2, 2, 1, 0.99602, -1.2271045351228536, 1.1, 0.9, 1.1, 0.9
4232, 'BUS_4232', 500.0, 1, 3, 13, 1, 1.0577777587885957, 42.49118044152985, 1.1, 0.9, 1.1, 0.9
3205, 'BUS_3205', 230.0, 2, 2, 2, 1, 0.99802, -0.3116678147332813, 1.1, 0.9, 1.1, 0.9
3731, 'BUS_3731', 20.0, 2, 1, 9, 1, 1.00056, -1.5653802451433465, 1.1, 0.9, 1.1, 0.9
6504, 'BUS_6504', 345.0, 1, 3, 12, 1, 1.0109899219197607, 34.0255491405892, 1.1, 0.9, 1.1, 0.9
2918, 'BUS_2918', 20.0, 1, 2, 2, 1, 1.0086792248555336, -13.079496731120768, 1.1, 0.9, 1.1, 0.9
4247, 'BUS_4247', 20.0, 2, 2, 2, 1, 1.02, -1.186712677461111, 1.1, 0.9, 1.1, 0.9
4039, 'BUS_4039', 230.0, 1, 3, 13, 1, 1.116315799514337, 40.19693837115517, 1.1, 0.9, 1.1, 0.9
3101, 'BUS_3101', 230.0, 2, 2, 2, 1, 0.98582, -5.850774913244341, 1.1, 0.9, 1.1, 0.9
3923, 'BUS_3923', 230.0, 2, 2, 2, 1, 1.01552, -1.2351172828115602, 1.1, 0.9, 1.1, 0.9
3941, 'BUS_3941', 20.0, 2, 2, 2, 1, 1.00044, -10.596218068795578, 1.1, 0.9, 1.1, 0.9
2411, 'BUS_2411', 230.0, 2, 2, 2, 1, 1.02022, -12.6460077973945, 1.1, 0.9, 1.1, 0.9
3303, 'BUS_3303', 230.0, 2, 2, 2, 1, 1.0, -1.2442277503217243, 1.1, 0.9, 1.1, 0.9
8036, 'BUS_8036', 20.0, 1, 2, 2, 1, 1.0003363527124711, -11.451641368249204, 1.1, 0.9, 1.1, 0.9
2407, 'BUS_2407', 230.0, 2, 2, 2, 1, 0.97137, -27.322324146273065, 1.1, 0.9, 1.1, 0.9
1449, 'BUS_1449', 20.0, 1, 1, 9, 1, 1.0051529667513672, -8.854776640896949, 1.1, 0.9, 1.1, 0.9
4006, 'BUS_4006', 500.0, 1, 3, 11, 1, 1.106421103878509, 41.69995639847968, 1.1, 0.9, 1.1, 0.9
4245, 'BUS_4245', 20.0, 1, 2, 2, 1, 1.0160742258522941, -1.1905336315117374, 1.1, 0.9, 1.1, 0.9
4243, 'BUS_4243', 20.0, 2, 2, 2, 1, 1.02, -1.181211673720736, 1.1, 0.9, 1.1, 0.9
2906, 'BUS_2906', 20.0, 2, 2, 2, 1, 1.03579, -13.238671170509491, 1.1, 0.9, 1.1, 0.9
6404, 'BUS_6404', 345.0, 1, 1, 9, 1, 1.0582329998957019, 28.67778240747685, 1.1, 0.9, 1.1, 0.9
4255, 'BUS_4255', 20.0, 1, 3, 11, 1, 1.1120265688276236, 45.230438026565565, 1.1, 0.9, 1.1, 0.9
3935, 'BUS_3935', 20.0, 2, 2, 2, 1, 1.00486, 4.5348216124065255, 1.1, 0.9, 1.1, 0.9
2431, 'BUS_2431', 20.0, 2, 2, 2, 1, 1.05, -15.15813219363283, 1.1, 0.9, 1.1, 0.9
2406, 'BUS_2406', 230.0, 2, 2, 2, 1, 1.00824, -19.411666174324502, 1.1, 0.9, 1.1, 0.9
2907, 'BUS_2907', 20.0, 1, 2, 2, 1, 1.005322624312808, -34.2245688917043, 1.1, 0.9, 1.1, 0.9
4103, 'BUS_4103', 500.0, 1, 3, 13, 1, 1.0802027418839837, 54.07438414862724, 1.1, 0.9, 1.1, 0.9
6335, 'BUS_6335', 230.0, 1, 3, 14, 1, 1.0673070675947438, 70.74146116622407, 1.1, 0.9, 1.1, 0.9
6535, 'BUS_6535', 20.0, 2, 3, 6, 1, 1.13221, 64.54934403842786, 1.1, 0.9, 1.1, 0.9
3433, 'BUS_3433', 230.0, 1, 2, 2, 1, 1.0000147194166293, -0.5580456461583801, 1.1, 0.9, 1.1, 0.9
3831, 'BUS_3831', 20.0, 2, 2, 2, 1, 1.04912, 1.841727974755112, 1.1, 0.9, 1.1, 0.9
4091, 'BUS_4091', 500.0, 1, 3, 11, 1, 1.10829574038559, 34.36480062028449, 1.1, 0.9, 1.1, 0.9